Version 4
SHEET 1 880 680
WIRE 400 320 368 320
WIRE 432 320 400 320
FLAG -432 400 0
FLAG -272 400 0
FLAG -432 320 Input
FLAG 304 320 Input
FLAG -272 320 Control
FLAG 304 352 Control
FLAG 432 320 Out
IOPIN 432 320 Out
FLAG -80 400 0
FLAG 96 400 0
FLAG -80 320 VDD
FLAG 336 288 VDD
FLAG 96 320 Vss
FLAG 336 384 Vss
FLAG 400 400 0
SYMBOL ZZZ\\LOGIC\\CD4xxx\\cd4066 336 336 R0
SYMATTR InstName U1
SYMBOL voltage -432 304 R0
WINDOW 123 0 0 Left 0
WINDOW 39 0 0 Left 0
WINDOW 3 -80 -96 Left 2
SYMATTR InstName Entrada
SYMATTR Value PWL file=C:\Users\carlo\OneDrive\Escritorio\ASSD\TPs\TP1\Remuestreo\AM.txt
SYMBOL voltage -272 304 R0
WINDOW 123 0 0 Left 0
WINDOW 39 0 0 Left 0
WINDOW 3 -52 153 Left 2
SYMATTR InstName Pulso
SYMATTR Value PULSE(-12 12 0 0 0 10u 20u)
SYMBOL voltage -80 304 R0
WINDOW 123 0 0 Left 0
WINDOW 39 0 0 Left 0
SYMATTR InstName V1
SYMATTR Value 12
SYMBOL voltage 96 416 R180
WINDOW 0 24 96 Left 2
WINDOW 3 24 16 Left 2
WINDOW 123 0 0 Left 0
WINDOW 39 0 0 Left 0
SYMATTR InstName V2
SYMATTR Value 12
SYMBOL res 384 304 R0
SYMATTR InstName R1
SYMATTR Value 10k
TEXT -328 488 Left 2 !.tran 0 1m 0 0.001
