Version 4
SHEET 1 880 724
WIRE 80 64 64 64
WIRE 80 96 64 96
WIRE 80 128 64 128
WIRE 320 144 272 144
WIRE 336 144 320 144
WIRE 80 160 -64 160
WIRE -192 192 -208 192
WIRE 80 192 64 192
WIRE 80 224 64 224
WIRE -208 240 -208 192
WIRE -64 304 -64 160
WIRE -64 416 -64 368
FLAG -624 288 0
FLAG -528 288 0
FLAG -64 416 0
FLAG -304 304 0
FLAG -800 288 0
FLAG -528 208 +Vcc
FLAG 336 144 Vout
FLAG 64 128 Control
FLAG -800 208 Vin
FLAG 64 64 Vin
FLAG -624 208 -Vcc
FLAG 64 224 +Vcc
FLAG 64 192 -Vcc
FLAG -192 192 LogRef
FLAG -208 240 0
FLAG 64 96 LogRef
FLAG 320 224 0
FLAG -304 224 Control
SYMBOL ZZZ\\OpAmp\\LF398 144 112 R0
SYMATTR InstName U1
SYMBOL voltage -528 192 R0
WINDOW 123 0 0 Left 0
WINDOW 39 0 0 Left 0
SYMATTR InstName V1
SYMATTR Value 12
SYMBOL voltage -624 304 R180
WINDOW 0 24 96 Left 2
WINDOW 3 24 16 Left 2
WINDOW 123 0 0 Left 0
WINDOW 39 0 0 Left 0
SYMATTR InstName V2
SYMATTR Value 12
SYMBOL cap -80 304 R0
SYMATTR InstName C1
SYMATTR Value 50n
SYMBOL voltage -304 208 R0
WINDOW 123 0 0 Left 0
WINDOW 39 0 0 Left 0
WINDOW 3 -164 146 Left 2
WINDOW 0 -114 39 Left 2
SYMATTR Value PULSE(-6 6 0 0 0 10u 100u)
SYMATTR InstName Pulso
SYMBOL voltage -800 192 R0
WINDOW 0 -5 149 Bottom 2
WINDOW 3 263 -114 Top 2
WINDOW 123 0 0 Left 0
WINDOW 39 0 0 Left 0
SYMATTR InstName Entrada
SYMATTR Value PWL file=C:\Users\carlo\OneDrive\Escritorio\ASSD\TPs\TP1\Remuestreo\AM.txt
SYMBOL res 304 128 R0
SYMATTR InstName R3
SYMATTR Value 10k
TEXT -456 408 Left 2 !.tran 0 1m 0 0.01
