Version 4
SHEET 1 1584 680
WIRE 384 -272 240 -272
WIRE 624 -272 448 -272
WIRE -480 -192 -656 -192
WIRE -272 -192 -416 -192
WIRE 624 -144 624 -272
WIRE 624 -144 448 -144
WIRE 1264 -144 1104 -144
WIRE 1488 -144 1328 -144
WIRE -272 -80 -272 -192
WIRE -272 -80 -448 -80
WIRE 1488 -48 1488 -144
WIRE 1488 -48 1312 -48
WIRE 448 0 448 -144
WIRE 496 0 448 0
WIRE 624 16 624 -144
WIRE 624 16 560 16
WIRE 704 16 624 16
WIRE 96 32 16 32
WIRE 240 32 240 -272
WIRE 240 32 176 32
WIRE 304 32 240 32
WIRE 448 32 384 32
WIRE 496 32 448 32
WIRE -448 64 -448 -80
WIRE -400 64 -448 64
WIRE -272 80 -272 -80
WIRE -272 80 -336 80
WIRE -208 80 -272 80
WIRE 1312 80 1312 -48
WIRE 1360 80 1312 80
WIRE -1088 96 -1088 32
WIRE -800 96 -848 96
WIRE -656 96 -656 -192
WIRE -656 96 -720 96
WIRE -592 96 -656 96
WIRE -448 96 -512 96
WIRE -400 96 -448 96
WIRE 1488 96 1488 -48
WIRE 1488 96 1424 96
WIRE 1552 96 1552 48
WIRE 1552 96 1488 96
WIRE 960 112 880 112
WIRE 1104 112 1104 -144
WIRE 1104 112 1040 112
WIRE 1168 112 1104 112
WIRE 1312 112 1248 112
WIRE 1360 112 1312 112
WIRE -1248 128 -1248 96
WIRE -1248 128 -1328 128
WIRE 448 144 448 32
WIRE -1328 176 -1328 128
WIRE -1248 176 -1248 128
WIRE -448 208 -448 96
WIRE 1312 224 1312 112
WIRE -1088 240 -1088 176
WIRE 448 240 448 208
WIRE -448 304 -448 272
WIRE 1312 320 1312 288
FLAG -448 304 0
FLAG -1328 176 0
FLAG -1248 16 Vcc+
FLAG -1248 256 Vcc-
FLAG -368 48 Vcc+
FLAG -368 112 Vcc-
FLAG -848 96 Vin
FLAG -1088 240 0
FLAG -1088 32 Vin
FLAG 448 240 0
FLAG 528 -16 Vcc+
FLAG 528 48 Vcc-
FLAG 1312 320 0
FLAG 1392 64 Vcc+
FLAG 1392 128 Vcc-
FLAG 1552 48 Vout
FLAG -208 80 Stage_1
FLAG 16 32 Stage_1
FLAG 704 16 Stage_2
FLAG 880 112 Stage_2
SYMBOL tl082 -368 80 R0
SYMATTR InstName U1
SYMBOL res -704 80 R90
WINDOW 0 0 56 VBottom 2
WINDOW 3 32 56 VTop 2
SYMATTR InstName R1
SYMATTR Value {R1_S1}
SYMBOL cap -464 208 R0
SYMATTR InstName C1
SYMATTR Value {C2_S1}
SYMBOL res -496 80 R90
WINDOW 0 0 56 VBottom 2
WINDOW 3 32 56 VTop 2
SYMATTR InstName R2
SYMATTR Value {R2_S1}
SYMBOL voltage -1248 0 R0
SYMATTR InstName V1
SYMATTR Value 5
SYMBOL voltage -1248 160 R0
SYMATTR InstName V2
SYMATTR Value 5
SYMBOL voltage -1088 80 R0
WINDOW 123 24 124 Left 2
WINDOW 39 0 0 Left 0
SYMATTR InstName V3
SYMATTR Value SINE(0 1 40k)
SYMATTR Value2 AC 1
SYMBOL tl082 528 16 R0
SYMATTR InstName U2
SYMBOL res 192 16 R90
WINDOW 0 0 56 VBottom 2
WINDOW 3 32 56 VTop 2
SYMATTR InstName R3
SYMATTR Value {R1_S2}
SYMBOL cap 432 144 R0
SYMATTR InstName C2
SYMATTR Value {C2_S2}
SYMBOL res 400 16 R90
WINDOW 0 0 56 VBottom 2
WINDOW 3 32 56 VTop 2
SYMATTR InstName R4
SYMATTR Value {R2_S2}
SYMBOL tl082 1392 96 R0
SYMATTR InstName U3
SYMBOL res 1056 96 R90
WINDOW 0 0 56 VBottom 2
WINDOW 3 32 56 VTop 2
SYMATTR InstName R5
SYMATTR Value {R1_S3}
SYMBOL cap 1296 224 R0
SYMATTR InstName C3
SYMATTR Value {C2_S3}
SYMBOL res 1264 96 R90
WINDOW 0 0 56 VBottom 2
WINDOW 3 32 56 VTop 2
SYMATTR InstName R6
SYMATTR Value {R2_S3}
SYMBOL cap -416 -208 R90
WINDOW 0 0 32 VBottom 2
WINDOW 3 32 32 VTop 2
SYMATTR InstName C4
SYMATTR Value {C1_S1}
SYMBOL cap 448 -288 R90
WINDOW 0 0 32 VBottom 2
WINDOW 3 32 32 VTop 2
SYMATTR InstName C5
SYMATTR Value {C1_S2}
SYMBOL cap 1328 -160 R90
WINDOW 0 0 32 VBottom 2
WINDOW 3 32 32 VTop 2
SYMATTR InstName C6
SYMATTR Value {C1_S3}
TEXT -816 320 Left 2 !.param R1_S1 75k\n.param R2_S1 33k\n.param C2_S1 100p\n.param C1_S1 68p
TEXT -1284 356 Left 2 !.ac dec 1000 100 1000k
TEXT 216 312 Left 2 !.param R1_S2 15k\n.param R2_S2 4.7k\n.param C1_S2 0.001u\n.param C2_S2 220p
TEXT 1080 392 Left 2 !.param R1_S3 39k\n.param R2_S3 12k\n.param C1_S3 0.001u\n.param C2_S3 33p
