Version 4
SHEET 1 1248 692
WIRE 352 -16 272 -16
WIRE 496 -16 416 -16
WIRE 672 -16 608 -16
WIRE 864 -16 736 -16
WIRE 160 32 0 32
WIRE 864 32 864 -16
WIRE 864 32 720 32
WIRE 496 48 496 -16
WIRE 496 48 368 48
WIRE 720 96 720 32
WIRE 752 96 720 96
WIRE 368 112 368 48
WIRE 400 112 368 112
WIRE 864 112 864 32
WIRE 864 112 816 112
WIRE 0 128 0 32
WIRE 64 128 0 128
WIRE 496 128 496 48
WIRE 496 128 464 128
WIRE 512 128 496 128
WIRE 608 128 608 -16
WIRE 608 128 592 128
WIRE 624 128 608 128
WIRE 720 128 704 128
WIRE 752 128 720 128
WIRE 160 144 160 32
WIRE 160 144 128 144
WIRE 176 144 160 144
WIRE 272 144 272 -16
WIRE 272 144 256 144
WIRE 288 144 272 144
WIRE 384 144 368 144
WIRE 400 144 384 144
WIRE -528 160 -528 128
WIRE -528 160 -640 160
WIRE -144 160 -256 160
WIRE 0 160 -64 160
WIRE 64 160 0 160
WIRE -528 192 -528 160
WIRE 0 192 0 160
WIRE 384 192 384 144
WIRE 720 192 720 128
WIRE -640 224 -640 160
WIRE -528 224 -528 192
WIRE -256 352 -256 240
FLAG -528 48 VCC
FLAG 96 112 VCC
FLAG 432 96 VCC
FLAG 784 80 VCC
FLAG -528 272 -VCC
FLAG 96 176 -VCC
FLAG 432 160 -VCC
FLAG 784 144 -VCC
FLAG -256 352 0
FLAG 0 256 0
FLAG 384 256 0
FLAG 720 256 0
FLAG -640 224 0
SYMBOL tl082 96 144 R0
SYMATTR InstName U1
SYMBOL tl082 432 128 R0
SYMATTR InstName U2
SYMBOL tl082 784 112 R0
SYMATTR InstName U3
SYMBOL res 272 128 R90
WINDOW 0 0 56 VBottom 2
WINDOW 3 32 56 VTop 2
SYMATTR InstName R1_S2
SYMATTR Value 2k
SYMBOL res 384 128 R90
WINDOW 0 0 56 VBottom 2
WINDOW 3 32 56 VTop 2
SYMATTR InstName R2_S2
SYMATTR Value 2.3k
SYMBOL res -48 144 R90
WINDOW 0 0 56 VBottom 2
WINDOW 3 32 56 VTop 2
SYMATTR InstName R1_S1
SYMATTR Value 13,8k
SYMBOL res 608 112 R90
WINDOW 0 0 56 VBottom 2
WINDOW 3 32 56 VTop 2
SYMATTR InstName R1_S3
SYMATTR Value 330
SYMBOL res 720 112 R90
WINDOW 0 0 56 VBottom 2
WINDOW 3 32 56 VTop 2
SYMATTR InstName R2_S3
SYMATTR Value 440
SYMBOL cap 16 256 R180
WINDOW 0 24 56 Left 2
WINDOW 3 24 8 Left 2
SYMATTR InstName C1_S1
SYMATTR Value 1n
SYMBOL cap 400 256 R180
WINDOW 0 24 56 Left 2
WINDOW 3 24 8 Left 2
SYMATTR InstName C1_S2
SYMATTR Value 1n
SYMBOL cap 352 0 R270
WINDOW 0 32 32 VTop 2
WINDOW 3 0 32 VBottom 2
SYMATTR InstName C2_S2
SYMATTR Value 8n2
SYMBOL cap 672 0 R270
WINDOW 0 32 32 VTop 2
WINDOW 3 0 32 VBottom 2
SYMATTR InstName C2_S3
SYMATTR Value 122n
SYMBOL cap 704 192 R0
SYMATTR InstName C1_S3
SYMATTR Value 1n
SYMBOL voltage -528 32 R0
WINDOW 123 0 0 Left 0
WINDOW 39 0 0 Left 0
SYMATTR InstName V1
SYMATTR Value {Vcc}
SYMBOL voltage -256 144 R0
WINDOW 123 24 124 Left 2
WINDOW 39 0 0 Left 0
SYMATTR Value2 AC 1
SYMATTR InstName Vg
SYMATTR Value SINE(0 1 40k)
SYMBOL voltage -528 176 R0
WINDOW 123 0 0 Left 0
WINDOW 39 0 0 Left 0
SYMATTR InstName V2
SYMATTR Value {Vcc}
TEXT 96 360 Left 2 !.ac dec 1000 15k 100k
TEXT -576 376 Left 2 !.param Vcc 5
