Version 4
SHEET 1 1180 680
WIRE -80 -64 -224 -64
WIRE 160 -64 -16 -64
WIRE 160 0 160 -64
WIRE 160 0 -16 0
WIRE -16 96 -16 0
WIRE 32 96 -16 96
WIRE -768 112 -768 80
WIRE -768 112 -848 112
WIRE 160 112 160 0
WIRE 160 112 96 112
WIRE 224 112 224 64
WIRE 224 112 160 112
WIRE 240 112 224 112
WIRE -368 128 -416 128
WIRE -224 128 -224 -64
WIRE -224 128 -288 128
WIRE -160 128 -224 128
WIRE -16 128 -80 128
WIRE 32 128 -16 128
WIRE -848 160 -848 112
WIRE -768 160 -768 112
WIRE -224 208 -224 128
WIRE -16 240 -16 128
WIRE -224 336 -224 288
WIRE -16 336 -16 304
FLAG -16 336 0
FLAG -224 336 0
FLAG -848 160 0
FLAG -768 0 Vcc+
FLAG -768 240 Vcc-
FLAG 64 80 Vcc+
FLAG 416 80 Vcc+
FLAG 752 80 Vcc+
FLAG 1088 80 Vcc+
FLAG 64 144 Vcc-
FLAG 416 144 Vcc-
FLAG 752 144 Vcc-
FLAG 1088 144 Vcc-
FLAG -416 128 Vi
FLAG 224 64 Stage_1
SYMBOL tl082 64 112 R0
SYMATTR InstName U1
SYMBOL tl082 416 112 R0
SYMATTR InstName U2
SYMBOL tl082 752 112 R0
SYMATTR InstName U3
SYMBOL tl082 1088 112 R0
SYMATTR InstName U4
SYMBOL res -272 112 R90
WINDOW 0 0 56 VBottom 2
WINDOW 3 32 56 VTop 2
SYMATTR InstName R1_S1
SYMATTR Value {R1_S1}
SYMBOL res -208 304 R180
WINDOW 0 36 76 Left 2
WINDOW 3 36 40 Left 2
SYMATTR InstName R2_S1
SYMATTR Value {R2_S1}
SYMBOL cap -32 240 R0
SYMATTR InstName C1_S1
SYMATTR Value {C1_S1}
SYMBOL cap -16 -80 R90
WINDOW 0 0 32 VBottom 2
WINDOW 3 32 32 VTop 2
SYMATTR InstName C2_S1
SYMATTR Value {C2_S1}
SYMBOL res -64 112 R90
WINDOW 0 0 56 VBottom 2
WINDOW 3 32 56 VTop 2
SYMATTR InstName R3_S1
SYMATTR Value {R3_S1}
SYMBOL voltage -768 -16 R0
SYMATTR InstName V1
SYMATTR Value 5
SYMBOL voltage -768 144 R0
SYMATTR InstName V2
SYMATTR Value 5
TEXT -440 400 Left 2 !.param R1_S1 246844\n.param R2_S1 2023005\n.param R3_S1 220
