Version 4
SHEET 1 880 680
WIRE 272 112 240 112
WIRE 304 112 272 112
FLAG -128 160 0
FLAG -304 464 0
FLAG -128 80 Input
FLAG 176 112 Input
FLAG -304 384 Control
FLAG 176 144 Control
FLAG 304 112 Out
IOPIN 304 112 Out
FLAG 144 432 0
FLAG 320 432 0
FLAG 144 352 VDD
FLAG 208 80 VDD
FLAG 320 352 Vss
FLAG 208 176 Vss
FLAG 272 192 0
SYMBOL ZZZ\\LOGIC\\CD4xxx\\cd4066 208 128 R0
SYMATTR InstName U1
SYMBOL voltage -128 64 R0
WINDOW 123 0 0 Left 0
WINDOW 39 0 0 Left 0
SYMATTR InstName Entrada
SYMATTR Value SINE(0 12 10k)
SYMBOL voltage -304 368 R0
WINDOW 123 0 0 Left 0
WINDOW 39 0 0 Left 0
SYMATTR InstName Pulso
SYMATTR Value PULSE(-12 12 0 0 0 10u 20u)
SYMBOL voltage 144 336 R0
WINDOW 123 0 0 Left 0
WINDOW 39 0 0 Left 0
SYMATTR InstName V1
SYMATTR Value 12
SYMBOL voltage 320 448 R180
WINDOW 0 24 96 Left 2
WINDOW 3 24 16 Left 2
WINDOW 123 0 0 Left 0
WINDOW 39 0 0 Left 0
SYMATTR InstName V2
SYMATTR Value 12
SYMBOL res 256 96 R0
SYMATTR InstName R1
SYMATTR Value 10k
TEXT -320 552 Left 2 !.tran 0 0.5m 0 0.001
