Version 4
SHEET 1 968 900
WIRE -736 -224 -736 -272
WIRE -736 -224 -848 -224
WIRE -624 -224 -736 -224
WIRE -80 -160 -128 -160
WIRE 176 -160 144 -160
WIRE -848 -128 -848 -224
WIRE -128 -128 -128 -160
WIRE -80 -96 -112 -96
WIRE 208 -96 144 -96
WIRE -1056 -64 -1120 -64
WIRE 208 -64 208 -96
WIRE 256 -64 208 -64
WIRE -592 -48 -592 -96
WIRE -592 -48 -624 -48
WIRE -1120 -32 -1120 -64
WIRE -80 -32 -112 -32
WIRE 208 -32 208 -64
WIRE 208 -32 144 -32
WIRE -848 0 -848 -64
WIRE -80 32 -112 32
WIRE 192 32 144 32
WIRE -624 64 -624 48
WIRE -592 64 -592 0
WIRE -592 64 -624 64
WIRE -624 112 -624 64
WIRE -1056 128 -1120 128
WIRE -1120 160 -1120 128
WIRE -848 160 -848 64
WIRE -688 160 -848 160
WIRE -624 224 -624 208
WIRE -576 224 -624 224
WIRE 0 272 -16 272
WIRE -848 288 -848 160
WIRE -624 288 -624 224
WIRE 0 400 0 272
WIRE 32 400 0 400
WIRE 176 416 96 416
WIRE 336 416 176 416
WIRE -848 432 -848 368
WIRE -736 432 -848 432
WIRE -624 432 -624 352
WIRE -624 432 -736 432
WIRE 32 432 -64 432
WIRE -736 480 -736 432
WIRE 64 480 64 448
FLAG 176 -160 +Vcc
FLAG -112 32 +Vcc
FLAG -128 -128 0
FLAG 256 32 pin_out
FLAG -112 -32 pin_out
FLAG -736 480 0
FLAG -1120 48 0
FLAG -1056 -64 +Vcc
FLAG -736 -272 +Vcc
FLAG -576 224 Diente_sierra
FLAG -1120 240 0
FLAG -1056 128 -Vcc
FLAG 64 480 -Vcc
FLAG 64 384 +Vcc
FLAG -320 320 +Vcc
FLAG 176 336 +Vcc
FLAG -64 432 Ref
FLAG 336 416 Vo
FLAG -112 -96 Diente_sierra
FLAG 256 -64 Diente_sierra
FLAG -16 272 Diente_sierra
FLAG -320 576 0
FLAG -288 448 Ref
SYMBOL ZZZ\\TIMER\\555 32 -64 R0
SYMATTR InstName U1
SYMBOL pnp -688 208 M180
SYMATTR InstName Q1
SYMATTR Value BC557C
SYMBOL res -864 272 R0
SYMATTR InstName R2
SYMATTR Value 1k
SYMBOL cap -640 288 R0
SYMATTR InstName C3
SYMATTR Value 330p
SYMBOL diode 192 48 R270
WINDOW 0 32 32 VTop 2
WINDOW 3 0 32 VBottom 2
SYMATTR InstName D2
SYMATTR Value 1N4148
SYMBOL voltage -1120 -48 R0
WINDOW 123 0 0 Left 0
WINDOW 39 0 0 Left 0
SYMATTR InstName V1
SYMATTR Value 12
SYMBOL diode -864 -128 R0
SYMATTR InstName D1
SYMATTR Value 1N4148
SYMBOL diode -864 0 R0
SYMATTR InstName D3
SYMATTR Value 1N4148
SYMBOL pot -624 0 R180
WINDOW 0 -158 16 Left 2
SYMATTR InstName Frec_gordo
SYMATTR Value R=50k
SYMATTR Value2 T=1
SYMBOL voltage -1120 256 R180
WINDOW 0 24 96 Left 2
WINDOW 3 24 16 Left 2
WINDOW 123 0 0 Left 0
WINDOW 39 0 0 Left 0
SYMATTR InstName V2
SYMATTR Value 12
SYMBOL res 160 320 R0
SYMATTR InstName R_pullup
SYMATTR Value 1k
SYMBOL res -640 -240 R0
SYMATTR InstName R5
SYMATTR Value 2k
SYMBOL pot -624 -96 R180
WINDOW 0 -132 19 Left 2
SYMATTR InstName Frec_fino
SYMATTR Value R=1k
SYMATTR Value2 T=0
SYMBOL pot -320 448 R180
SYMATTR InstName U2
SYMATTR Value R=20k
SYMATTR Value2 T=1
SYMBOL res -336 480 R0
SYMATTR InstName R1
SYMATTR Value 1.5k
SYMBOL res -336 304 R0
SYMATTR InstName R3
SYMATTR Value 11k
SYMBOL ZZZ\\Comparator\\LM339A_TI 64 416 R0
SYMATTR InstName U4
TEXT -1224 304 Left 2 !.tran 0 0.6m 0 0.01
