Version 4
SHEET 1 1492 1812
WIRE 400 -48 64 -48
WIRE 688 0 480 0
WIRE 64 64 64 -48
WIRE 80 64 64 64
WIRE 80 96 64 96
WIRE 480 112 480 0
WIRE 544 112 480 112
WIRE 80 128 64 128
WIRE 688 128 688 0
WIRE 688 128 608 128
WIRE 368 144 272 144
WIRE 400 144 400 -48
WIRE 400 144 368 144
WIRE 544 144 400 144
WIRE 688 144 688 128
WIRE 832 144 688 144
WIRE 944 144 896 144
WIRE 960 144 944 144
WIRE 80 160 -64 160
WIRE -464 176 -512 176
WIRE 80 192 64 192
WIRE 80 224 64 224
WIRE 944 224 944 144
WIRE -64 304 -64 160
WIRE 1008 304 944 304
WIRE -512 336 -528 336
WIRE -528 384 -528 336
WIRE 784 384 720 384
WIRE -64 416 -64 368
WIRE 720 416 720 384
WIRE 784 576 720 576
WIRE 720 608 720 576
WIRE -1200 688 -1200 640
WIRE -1200 688 -1312 688
WIRE -1088 688 -1200 688
WIRE -688 736 -736 736
WIRE -432 736 -464 736
WIRE -736 768 -736 736
WIRE -1312 784 -1312 688
WIRE -688 800 -720 800
WIRE -400 800 -464 800
WIRE -400 832 -400 800
WIRE -352 832 -400 832
WIRE -1520 848 -1584 848
WIRE -1056 864 -1056 816
WIRE -1056 864 -1088 864
WIRE -688 864 -720 864
WIRE -400 864 -400 832
WIRE -400 864 -464 864
WIRE -1584 880 -1584 848
WIRE -1312 912 -1312 848
WIRE -688 928 -720 928
WIRE -416 928 -464 928
WIRE -1088 976 -1088 960
WIRE -1056 976 -1056 912
WIRE -1056 976 -1088 976
WIRE -1088 1024 -1088 976
WIRE -1520 1040 -1584 1040
WIRE -1584 1072 -1584 1040
WIRE -1312 1072 -1312 976
WIRE -1152 1072 -1312 1072
WIRE -1088 1136 -1088 1120
WIRE -1040 1136 -1088 1136
WIRE -288 1168 -304 1168
WIRE -1312 1200 -1312 1072
WIRE -1088 1200 -1088 1136
WIRE -288 1296 -288 1168
WIRE -256 1296 -288 1296
WIRE -16 1312 -192 1312
WIRE 144 1312 -16 1312
WIRE -256 1328 -352 1328
WIRE -1312 1344 -1312 1280
WIRE -1200 1344 -1312 1344
WIRE -1088 1344 -1088 1264
WIRE -1088 1344 -1200 1344
WIRE -224 1376 -224 1344
WIRE -1200 1392 -1200 1344
FLAG -64 416 0
FLAG -512 256 0
FLAG -512 64 0
FLAG -48 16 Pulso
FLAG -512 -16 Vin
FLAG -464 176 Pulso
FLAG 64 224 +Vcc
FLAG 64 192 -Vcc
FLAG -512 336 LogRef
FLAG -528 384 0
FLAG 64 96 LogRef
FLAG 720 272 Pulso
FLAG 960 144 Out2
IOPIN 960 144 Out
FLAG 1008 304 0
FLAG 368 224 0
FLAG 576 96 +Vcc2
FLAG 576 160 -Vcc2
FLAG 864 112 +Vcc
FLAG 864 208 -Vcc
FLAG -432 736 +Vcc
FLAG -720 928 +Vcc
FLAG -736 768 0
FLAG -352 928 pin_out
FLAG -720 864 pin_out
FLAG -1200 1392 0
FLAG -1584 960 0
FLAG -1520 848 +Vcc
FLAG -1200 640 +Vcc
FLAG -1040 1136 Diente_sierra
FLAG -1584 1152 0
FLAG -1520 1040 -Vcc
FLAG -224 1376 -Vcc8
FLAG -224 1280 +Vcc
FLAG -16 1232 +Vcc
FLAG -352 1328 Ref
FLAG 144 1312 oscilador
FLAG -720 800 Diente_sierra
FLAG -352 832 Diente_sierra
FLAG -304 1168 Diente_sierra
FLAG 64 128 oscilador
FLAG 832 176 oscilador
FLAG 720 496 0
FLAG 784 384 +Vcc2
FLAG 720 688 0
FLAG 784 576 -Vcc2
FLAG 64 64 Vin
FLAG -608 1232 +Vcc
FLAG -608 1488 0
FLAG -576 1360 Ref
FLAG -64 1552 0
FLAG -64 1632 -Vcc8
SYMBOL ZZZ\\OpAmp\\LF398 144 112 R0
SYMATTR InstName U1
SYMBOL cap -80 304 R0
SYMATTR InstName C1
SYMATTR Value 1n
SYMBOL voltage -512 160 R0
WINDOW 123 0 0 Left 0
WINDOW 39 0 0 Left 0
WINDOW 3 -364 100 Left 2
WINDOW 0 -114 39 Left 2
SYMATTR Value PULSE(-12 12 0 0 0 5u 10u)
SYMATTR InstName Pulso
SYMBOL voltage -512 -32 R0
WINDOW 0 94 50 Bottom 2
WINDOW 3 184 67 Top 2
WINDOW 123 0 0 Left 0
WINDOW 39 0 0 Left 0
SYMATTR InstName Entrada
SYMATTR Value SINE(0 12 15k )
SYMBOL res 928 208 R0
SYMATTR InstName R3
SYMATTR Value 10k
SYMBOL res 352 128 R0
SYMATTR InstName R4
SYMATTR Value 10k
SYMBOL ZZZ\\OpAmp\\TL082 576 128 R0
SYMATTR InstName U3
SYMBOL ZZZ\\TIMER\\555 -576 832 R0
SYMATTR InstName U4
SYMBOL pnp -1152 1120 M180
SYMATTR InstName Q1
SYMATTR Value BC557C
SYMBOL res -1328 1184 R0
SYMATTR InstName R5
SYMATTR Value 1k
SYMBOL cap -1104 1200 R0
SYMATTR InstName C2
SYMATTR Value 330p
SYMBOL diode -416 944 R270
WINDOW 0 32 32 VTop 2
WINDOW 3 0 32 VBottom 2
SYMATTR InstName D1
SYMATTR Value 1N4148
SYMBOL voltage -1584 864 R0
WINDOW 123 0 0 Left 0
WINDOW 39 0 0 Left 0
SYMATTR InstName V3
SYMATTR Value 12
SYMBOL diode -1328 784 R0
SYMATTR InstName D2
SYMATTR Value 1N4148
SYMBOL diode -1328 912 R0
SYMATTR InstName D3
SYMATTR Value 1N4148
SYMBOL pot -1088 912 R180
WINDOW 0 -126 16 Left 2
SYMATTR InstName Frec_alto1
SYMATTR Value R=50k
SYMATTR Value2 T=0.1
SYMBOL voltage -1584 1168 R180
WINDOW 0 24 96 Left 2
WINDOW 3 24 16 Left 2
WINDOW 123 0 0 Left 0
WINDOW 39 0 0 Left 0
SYMATTR InstName V4
SYMATTR Value 12
SYMBOL res -32 1216 R0
SYMATTR InstName R_pullup1
SYMATTR Value 1k
SYMBOL res -1104 672 R0
SYMATTR InstName R9
SYMATTR Value 2k
SYMBOL pot -1088 816 R180
WINDOW 0 -132 19 Left 2
SYMATTR InstName Frec_fino1
SYMATTR Value R=1k
SYMATTR Value2 T=0
SYMBOL voltage 720 400 R0
WINDOW 123 0 0 Left 0
WINDOW 39 0 0 Left 0
SYMATTR InstName V1
SYMATTR Value 15
SYMBOL voltage 720 704 R180
WINDOW 0 24 96 Left 2
WINDOW 3 24 16 Left 2
WINDOW 123 0 0 Left 0
WINDOW 39 0 0 Left 0
SYMATTR InstName V2
SYMATTR Value 15
SYMBOL ZZZ\\LOGIC\\CD4xxx\\cd4066 864 160 R0
SYMATTR InstName U6
SYMBOL pot -608 1360 R180
SYMATTR InstName U2
SYMATTR Value R=20k
SYMATTR Value2 T=0.5
SYMBOL res -624 1392 R0
SYMATTR InstName R1
SYMATTR Value 1.5k
SYMBOL res -624 1216 R0
SYMATTR InstName R2
SYMATTR Value 11k
SYMBOL voltage -64 1536 R0
WINDOW 123 0 0 Left 0
WINDOW 39 0 0 Left 0
SYMATTR InstName V5
SYMATTR Value 8
SYMBOL ZZZ\\Comparator\\LM339A_TI -224 1312 R0
SYMATTR InstName U5
TEXT 216 608 Left 2 !.tran 0 0.05m 0 0.01
