Version 4
SHEET 1 880 724
WIRE 80 64 64 64
WIRE 80 96 64 96
WIRE 80 128 64 128
WIRE 320 144 272 144
WIRE 336 144 320 144
WIRE 80 160 -64 160
WIRE 80 192 64 192
WIRE 80 224 64 224
WIRE -64 304 -64 160
WIRE -512 336 -528 336
WIRE -528 384 -528 336
WIRE -64 416 -64 368
FLAG -560 704 0
FLAG -464 704 0
FLAG -64 416 0
FLAG -512 256 0
FLAG -512 64 0
FLAG -464 624 +Vcc
FLAG 336 144 Vout
FLAG 64 128 Control
FLAG -512 -16 Vin
FLAG 64 64 Vin
FLAG -560 624 -Vcc
FLAG 64 224 +Vcc
FLAG 64 192 -Vcc
FLAG -512 336 LogRef
FLAG -528 384 0
FLAG 64 96 LogRef
FLAG 320 224 0
FLAG -512 176 Control
SYMBOL ZZZ\\OpAmp\\LF398 144 112 R0
SYMATTR InstName U1
SYMBOL voltage -464 608 R0
WINDOW 123 0 0 Left 0
WINDOW 39 0 0 Left 0
SYMATTR InstName V1
SYMATTR Value 12
SYMBOL voltage -560 720 R180
WINDOW 0 24 96 Left 2
WINDOW 3 24 16 Left 2
WINDOW 123 0 0 Left 0
WINDOW 39 0 0 Left 0
SYMATTR InstName V2
SYMATTR Value 12
SYMBOL cap -80 304 R0
SYMATTR InstName C1
SYMATTR Value 1n
SYMBOL voltage -512 160 R0
WINDOW 123 0 0 Left 0
WINDOW 39 0 0 Left 0
WINDOW 3 -364 100 Left 2
WINDOW 0 -114 39 Left 2
SYMATTR Value PULSE(-6 6 0 0 0 10u 20u)
SYMATTR InstName Pulso
SYMBOL voltage -512 -32 R0
WINDOW 0 94 50 Bottom 2
WINDOW 3 184 67 Top 2
WINDOW 123 0 0 Left 0
WINDOW 39 0 0 Left 0
SYMATTR InstName Entrada
SYMATTR Value SINE(0 5 120k)
SYMBOL res 304 128 R0
SYMATTR InstName R3
SYMATTR Value 10k
TEXT -608 448 Left 2 !.tran 0 0.3m 0 0.01
